evidence/studies/case3.m
% Synthetic Tellegen example, MIT license (repository LICENSE).
function mpc = case3test
mpc.version = '2';
mpc.baseMVA = 100;
mpc.bus = [
 1 3 0  0  0 0 1 1 0 230 1 1.1 0.9;
 2 1 90 30 0 0 1 1 0 230 1 1.1 0.9;
 3 2 0  0  0 0 1 1 0 230 1 1.1 0.9;
];
mpc.gen = [
 1 0  0 300 -300 1 100 1 250 10 0 0 0 0 0 0 0 0 0 0 0;
 3 60 0 300 -300 1 100 1 270 10 0 0 0 0 0 0 0 0 0 0 0;
];
mpc.branch = [
 1 2 0.01 0.1 0 250 250 250 0 0 1 -360 360;
 1 3 0.01 0.1 0 250 250 250 0 0 1 -360 360;
 2 3 0.01 0.1 0 60 60 60 0 0 1 -360 360;
];
mpc.gencost = [
 2 0 0 3 0.11  5   0;
 2 0 0 3 0.085 1.2 0;
];
